ieee118.txt
LOVE_YP_POWERFLOW_DATA
BUS_INFO_BEGIN:118
1	bus-1	2	0.955	10.972	100.0	0.0	-3.10409	51.0	27.0	15.0	-5.0	0.0
2	bus-2	3	0.971	11.512	100.0	0.0	0.0	20.0	9.0	0.0	0.0	0.0
3	bus-3	3	0.967	11.856	100.0	0.0	0.0	39.0	10.0	0.0	0.0	0.0
4	bus-4	2	0.998	15.574	100.0	-9.0	-15.0096	30.0	12.0	300.0	-300.0	0.0
5	bus-5	3	1.002	16.019	100.0	0.0	0.0	0.0	0.0	0.0	0.0	-0.4
6	bus-6	2	0.99	13.291	100.0	0.0	15.92976	52.0	22.0	50.0	-13.0	0.0
7	bus-7	3	0.989	12.847	100.0	0.0	0.0	19.0	2.0	0.0	0.0	0.0
8	bus-8	2	1.015	21.04	100.0	-28.0	63.13844	0.0	0.0	300.0	-300.0	0.0
9	bus-9	3	1.042	28.294	100.0	0.0	0.0	0.0	0.0	0.0	0.0	0.0
10	bus-10	2	1.05	35.875	100.0	450.0	-51.0421	0.0	0.0	200.0	-147.0	0.0
11	bus-11	3	0.985	13.005	100.0	0.0	0.0	70.0	23.0	0.0	0.0	0.0
12	bus-12	2	0.99	12.488	100.0	85.0	91.29173	47.0	10.0	120.0	-35.0	0.0
13	bus-13	3	0.968	11.629	100.0	0.0	0.0	34.0	16.0	0.0	0.0	0.0
14	bus-14	3	0.983	11.771	100.0	0.0	0.0	14.0	1.0	0.0	0.0	0.0
15	bus-15	2	0.97	11.474	100.0	0.0	7.160454	90.0	30.0	30.0	-10.0	0.0
16	bus-16	3	0.983	12.187	100.0	0.0	0.0	25.0	10.0	0.0	0.0	0.0
17	bus-17	3	0.995	13.995	100.0	0.0	0.0	11.0	3.0	0.0	0.0	0.0
18	bus-18	2	0.973	11.78	100.0	0.0	28.42632	60.0	34.0	50.0	-16.0	0.0
19	bus-19	2	0.962	11.314	100.0	0.0	-14.2741	45.0	25.0	24.0	-8.0	0.0
20	bus-20	3	0.956	12.191	100.0	0.0	0.0	18.0	3.0	0.0	0.0	0.0
21	bus-21	3	0.957	13.778	100.0	0.0	0.0	14.0	8.0	0.0	0.0	0.0
22	bus-22	3	0.969	16.331	100.0	0.0	0.0	10.0	5.0	0.0	0.0	0.0
23	bus-23	3	0.999	21.248	100.0	0.0	0.0	7.0	3.0	0.0	0.0	0.0
24	bus-24	2	0.992	21.113	100.0	-13.0	-14.9076	0.0	0.0	300.0	-300.0	0.0
25	bus-25	2	1.05	28.179	100.0	220.0	50.04325	0.0	0.0	140.0	-47.0	0.0
26	bus-26	2	1.015	29.96	100.0	314.0	10.12472	0.0	0.0	1000.0	-1000.0	0.0
27	bus-27	2	0.968	15.604	100.0	-9.0	3.982349	62.0	13.0	300.0	-300.0	0.0
28	bus-28	3	0.961	13.878	100.0	0.0	0.0	17.0	7.0	0.0	0.0	0.0
29	bus-29	3	0.963	12.885	100.0	0.0	0.0	24.0	4.0	0.0	0.0	0.0
30	bus-30	3	0.985	19.033	100.0	0.0	0.0	0.0	0.0	0.0	0.0	0.0
31	bus-31	2	0.967	13.001	100.0	7.0	32.58601	43.0	27.0	300.0	-300.0	0.0
32	bus-32	2	0.963	15.06	100.0	0.0	-16.2847	59.0	23.0	42.0	-14.0	0.0
33	bus-33	3	0.97	10.853	100.0	0.0	0.0	23.0	9.0	0.0	0.0	0.0
34	bus-34	2	0.984	11.511	100.0	0.0	-20.8271	59.0	26.0	24.0	-8.0	0.14
35	bus-35	3	0.98	11.055	100.0	0.0	0.0	33.0	9.0	0.0	0.0	0.0
36	bus-36	2	0.98	11.055	100.0	0.0	7.725078	31.0	17.0	24.0	-8.0	0.0
37	bus-37	3	0.99	11.966	100.0	0.0	0.0	0.0	0.0	0.0	0.0	-0.25
38	bus-38	3	0.961	17.107	100.0	0.0	0.0	0.0	0.0	0.0	0.0	0.0
39	bus-39	3	0.97	8.5766	100.0	0.0	0.0	27.0	11.0	0.0	0.0	0.0
40	bus-40	2	0.97	7.4955	100.0	-46.0	28.45407	20.0	23.0	300.0	-300.0	0.0
41	bus-41	3	0.966	7.0516	100.0	0.0	0.0	37.0	10.0	0.0	0.0	0.0
42	bus-42	2	0.985	8.6529	100.0	-59.0	41.02957	37.0	23.0	300.0	-300.0	0.0
43	bus-43	3	0.977	11.46	100.0	0.0	0.0	18.0	7.0	0.0	0.0	0.0
44	bus-44	3	0.984	13.943	100.0	0.0	0.0	16.0	8.0	0.0	0.0	0.1
45	bus-45	3	0.986	15.772	100.0	0.0	0.0	53.0	22.0	0.0	0.0	0.1
46	bus-46	2	1.005	18.575	100.0	19.0	-5.02945	28.0	10.0	100.0	-100.0	0.1
47	bus-47	3	1.017	20.799	100.0	0.0	0.0	34.0	0.0	0.0	0.0	0.0
48	bus-48	3	1.02	20.018	100.0	0.0	0.0	20.0	11.0	0.0	0.0	0.15
49	bus-49	2	1.025	21.021	100.0	204.0	115.8451	87.0	30.0	210.0	-85.0	0.0
50	bus-50	3	1.001	18.982	100.0	0.0	0.0	17.0	4.0	0.0	0.0	0.0
51	bus-51	3	0.966	16.364	100.0	0.0	0.0	17.0	8.0	0.0	0.0	0.0
52	bus-52	3	0.956	15.41	100.0	0.0	0.0	18.0	5.0	0.0	0.0	0.0
53	bus-53	3	0.946	14.436	100.0	0.0	0.0	23.0	11.0	0.0	0.0	0.0
54	bus-54	2	0.955	15.348	100.0	48.0	3.901064	113.0	32.0	300.0	-300.0	0.0
55	bus-55	2	0.952	15.058	100.0	0.0	4.664171	63.0	22.0	23.0	-8.0	0.0
56	bus-56	2	0.954	15.244	100.0	0.0	-2.28574	84.0	18.0	15.0	-8.0	0.0
57	bus-57	3	0.97	16.449	100.0	0.0	0.0	12.0	3.0	0.0	0.0	0.0
58	bus-58	3	0.959	15.592	100.0	0.0	0.0	12.0	3.0	0.0	0.0	0.0
59	bus-59	2	0.985	19.448	100.0	155.0	76.83395	277.0	113.0	180.0	-60.0	0.0
60	bus-60	3	0.993	23.23	100.0	0.0	0.0	78.0	3.0	0.0	0.0	0.0
61	bus-61	2	0.995	24.121	100.0	160.0	-40.394	0.0	0.0	300.0	-100.0	0.0
62	bus-62	2	0.998	23.504	100.0	0.0	1.258372	77.0	14.0	20.0	-20.0	0.0
63	bus-63	3	0.968	22.827	100.0	0.0	0.0	0.0	0.0	0.0	0.0	0.0
64	bus-64	3	0.983	24.593	100.0	0.0	0.0	0.0	0.0	0.0	0.0	0.0
65	bus-65	2	1.005	27.719	100.0	391.0	81.51015	0.0	0.0	200.0	-67.0	0.0
66	bus-66	2	1.05	27.558	100.0	392.0	-1.95658	39.0	18.0	200.0	-67.0	0.0
67	bus-67	3	1.019	24.919	100.0	0.0	0.0	28.0	7.0	0.0	0.0	0.0
68	bus-68	3	1.003	27.597	100.0	0.0	0.0	0.0	0.0	0.0	0.0	0.0
69	bus-69	1	1.035	30.0	100.0	513.8628	-82.424	0.0	0.0	300.0	-300.0	0.0
70	bus-70	2	0.984	22.617	100.0	0.0	9.669292	66.0	20.0	32.0	-10.0	0.0
71	bus-71	3	0.986	22.206	100.0	0.0	0.0	0.0	0.0	0.0	0.0	0.0
72	bus-72	2	0.98	21.108	100.0	-12.0	-11.13	0.0	0.0	100.0	-100.0	0.0
73	bus-73	2	0.991	21.995	100.0	-6.0	9.65137	0.0	0.0	100.0	-100.0	0.0
74	bus-74	2	0.958	21.668	100.0	0.0	-5.6252	68.0	27.0	9.0	-6.0	0.12
75	bus-75	3	0.967	22.93	100.0	0.0	0.0	47.0	11.0	0.0	0.0	0.0
76	bus-76	2	0.943	21.798	100.0	0.0	5.2681	68.0	36.0	23.0	-8.0	0.0
77	bus-77	2	1.006	26.75	100.0	0.0	12.17036	61.0	28.0	70.0	-20.0	0.0
78	bus-78	3	1.003	26.446	100.0	0.0	0.0	71.0	26.0	0.0	0.0	0.0
79	bus-79	3	1.009	26.745	100.0	0.0	0.0	39.0	32.0	0.0	0.0	0.2
80	bus-80	2	1.04	28.99	100.0	477.0	105.4664	130.0	26.0	280.0	-165.0	0.0
81	bus-81	3	0.996	28.144	100.0	0.0	0.0	0.0	0.0	0.0	0.0	0.0
82	bus-82	3	0.988	27.271	100.0	0.0	0.0	54.0	27.0	0.0	0.0	0.2
83	bus-83	3	0.984	28.464	100.0	0.0	0.0	20.0	10.0	0.0	0.0	0.1
84	bus-84	3	0.979	31.0	100.0	0.0	0.0	11.0	7.0	0.0	0.0	0.0
85	bus-85	2	0.985	32.555	100.0	0.0	-5.60658	24.0	15.0	23.0	-8.0	0.0
86	bus-86	3	0.986	31.186	100.0	0.0	0.0	21.0	10.0	0.0	0.0	0.0
87	bus-87	2	1.015	31.445	100.0	4.0	11.0216	0.0	0.0	1000.0	-100.0	0.0
88	bus-88	3	0.987	35.69	100.0	0.0	0.0	48.0	10.0	0.0	0.0	0.0
89	bus-89	2	1.005	39.748	100.0	607.0	-5.90495	0.0	0.0	300.0	-210.0	0.0
90	bus-90	2	0.985	33.338	100.0	-85.0	59.3084	78.0	42.0	300.0	-300.0	0.0
91	bus-91	2	0.98	33.35	100.0	-10.0	-13.088	0.0	0.0	100.0	-100.0	0.0
92	bus-92	2	0.99	33.88	100.0	0.0	-13.9562	65.0	10.0	9.0	-3.0	0.0
93	bus-93	3	0.985	30.849	100.0	0.0	0.0	12.0	7.0	0.0	0.0	0.0
94	bus-94	3	0.989	28.682	100.0	0.0	0.0	30.0	16.0	0.0	0.0	0.0
95	bus-95	3	0.98	27.709	100.0	0.0	0.0	42.0	31.0	0.0	0.0	0.0
96	bus-96	3	0.992	27.542	100.0	0.0	0.0	38.0	15.0	0.0	0.0	0.0
97	bus-97	3	1.011	27.915	100.0	0.0	0.0	15.0	9.0	0.0	0.0	0.0
98	bus-98	3	1.023	27.433	100.0	0.0	0.0	34.0	8.0	0.0	0.0	0.0
99	bus-99	2	1.01	27.066	100.0	-42.0	-17.5355	0.0	0.0	100.0	-100.0	0.0
100	bus-100	2	1.017	28.058	100.0	252.0	95.55211	37.0	18.0	155.0	-50.0	0.0
101	bus-101	3	0.991	29.646	100.0	0.0	0.0	22.0	15.0	0.0	0.0	0.0
102	bus-102	3	0.989	32.365	100.0	0.0	0.0	5.0	3.0	0.0	0.0	0.0
103	bus-103	2	1.01	24.317	100.0	40.0	75.42236	23.0	16.0	40.0	-15.0	0.0
104	bus-104	2	0.971	21.747	100.0	0.0	2.388251	38.0	25.0	23.0	-8.0	0.0
105	bus-105	2	0.965	20.643	100.0	0.0	-18.3345	31.0	26.0	23.0	-8.0	0.2
106	bus-106	3	0.961	20.383	100.0	0.0	0.0	43.0	16.0	0.0	0.0	0.0
107	bus-107	2	0.952	17.582	100.0	-22.0	6.557818	28.0	12.0	200.0	-200.0	0.06
108	bus-108	3	0.966	19.443	100.0	0.0	0.0	2.0	1.0	0.0	0.0	0.0
109	bus-109	3	0.967	18.99	100.0	0.0	0.0	8.0	3.0	0.0	0.0	0.0
110	bus-110	2	0.973	18.144	100.0	0.0	0.280833	39.0	30.0	23.0	-8.0	0.06
111	bus-111	2	0.98	19.789	100.0	36.0	-1.84382	0.0	0.0	1000.0	-100.0	0.0
112	bus-112	2	0.975	15.044	100.0	-43.0	41.51169	25.0	13.0	1000.0	-100.0	0.0
113	bus-113	2	0.993	13.992	100.0	-6.0	6.752626	0.0	0.0	200.0	-100.0	0.0
114	bus-114	3	0.96	14.726	100.0	0.0	0.0	8.0	3.0	0.0	0.0	0.0
115	bus-115	3	0.96	14.718	100.0	0.0	0.0	22.0	7.0	0.0	0.0	0.0
116	bus-116	2	1.005	27.162	100.0	-184.0	51.32247	0.0	0.0	1000.0	-1000.0	0.0
117	bus-117	3	0.973	10.947	100.0	0.0	0.0	20.0	8.0	0.0	0.0	0.0
118	bus-118	3	0.949	21.941	100.0	0.0	0.0	33.0	15.0	0.0	0.0	0.0
BUS_INFO_END
BRANCH_INFO_BEGIN:186
2	1	1	1	0.0303	0.0999	0.0127	0.0
3	1	2	1	0.0129	0.0424	0.00541	0.0
5	4	3	1	0.00176	0.00798	0.00105	0.0
5	3	4	1	0.0241	0.108	0.0142	0.0
6	5	5	1	0.0119	0.054	0.00713	0.0
7	6	6	1	0.00459	0.0208	0.00275	0.0
9	8	7	1	0.00244	0.0305	0.581	0.0
5	8	8	2	0.0	0.0267	0.0	0.985
10	9	9	1	0.00258	0.0322	0.615	0.0
11	4	10	1	0.0209	0.0688	0.00874	0.0
11	5	11	1	0.0203	0.0682	0.00869	0.0
12	11	12	1	0.00595	0.0196	0.00251	0.0
12	2	13	1	0.0187	0.0616	0.00786	0.0
12	3	14	1	0.0484	0.16	0.0203	0.0
12	7	15	1	0.00862	0.034	0.00437	0.0
13	11	16	1	0.02225	0.0731	0.00938	0.0
14	12	17	1	0.0215	0.0707	0.00908	0.0
15	13	18	1	0.0744	0.2444	0.03134	0.0
15	14	19	1	0.0595	0.195	0.0251	0.0
16	12	20	1	0.0212	0.0834	0.0107	0.0
17	15	21	1	0.0132	0.0437	0.0222	0.0
17	16	22	1	0.0454	0.1801	0.0233	0.0
18	17	23	1	0.0123	0.0505	0.00649	0.0
19	18	24	1	0.01119	0.0493	0.00571	0.0
20	19	25	1	0.0252	0.117	0.0149	0.0
19	15	26	1	0.012	0.0394	0.00505	0.0
21	20	27	1	0.0183	0.0849	0.0108	0.0
22	21	28	1	0.0209	0.097	0.0123	0.0
23	22	29	1	0.0342	0.159	0.0202	0.0
24	23	30	1	0.0135	0.0492	0.0249	0.0
25	23	31	1	0.0156	0.08	0.0432	0.0
25	26	32	2	0.0	0.0382	0.0	0.96
27	25	33	1	0.0318	0.163	0.0882	0.0
28	27	34	1	0.01913	0.0855	0.0108	0.0
29	28	35	1	0.0237	0.0943	0.0119	0.0
17	30	36	2	0.0	0.0388	0.0	0.96
30	8	37	1	0.00431	0.0504	0.257	0.0
30	26	38	1	0.00799	0.086	0.454	0.0
31	17	39	1	0.0474	0.1563	0.01995	0.0
31	29	40	1	0.0108	0.0331	0.00415	0.0
32	23	41	1	0.0317	0.1153	0.05865	0.0
32	31	42	1	0.0298	0.0985	0.01255	0.0
32	27	43	1	0.0229	0.0755	0.00963	0.0
33	15	44	1	0.038	0.1244	0.01597	0.0
34	19	45	1	0.0752	0.247	0.0316	0.0
36	35	46	1	0.00224	0.0102	0.00134	0.0
37	35	47	1	0.011	0.0497	0.00659	0.0
37	33	48	1	0.0415	0.142	0.0183	0.0
36	34	49	1	0.00871	0.0268	0.00284	0.0
37	34	50	1	0.00256	0.0094	0.00492	0.0
37	38	51	2	0.0	0.0375	0.0	0.935
39	37	52	1	0.0321	0.106	0.0135	0.0
40	37	53	1	0.0593	0.168	0.021	0.0
38	30	54	1	0.00464	0.054	0.211	0.0
40	39	55	1	0.0184	0.0605	0.00776	0.0
41	40	56	1	0.0145	0.0487	0.00611	0.0
42	40	57	1	0.0555	0.183	0.0233	0.0
42	41	58	1	0.041	0.135	0.0172	0.0
44	43	59	1	0.0608	0.2454	0.03034	0.0
43	34	60	1	0.0413	0.1681	0.02113	0.0
45	44	61	1	0.0224	0.0901	0.0112	0.0
46	45	62	1	0.04	0.1356	0.0166	0.0
47	46	63	1	0.038	0.127	0.0158	0.0
48	46	64	1	0.0601	0.189	0.0236	0.0
49	47	65	1	0.0191	0.0625	0.00802	0.0
49	42	66	1	0.0715	0.323	0.043	0.0
49	42	67	1	0.0715	0.323	0.043	0.0
49	45	68	1	0.0684	0.186	0.0222	0.0
49	48	69	1	0.0179	0.0505	0.00629	0.0
50	49	70	1	0.0267	0.0752	0.00937	0.0
51	49	71	1	0.0486	0.137	0.0171	0.0
52	51	72	1	0.0203	0.0588	0.00698	0.0
53	52	73	1	0.0405	0.1635	0.02029	0.0
54	53	74	1	0.0263	0.122	0.0155	0.0
54	49	75	1	0.073	0.289	0.0369	0.0
54	49	76	1	0.0869	0.291	0.0365	0.0
55	54	77	1	0.0169	0.0707	0.0101	0.0
56	54	78	1	0.00275	0.00955	0.00366	0.0
56	55	79	1	0.00488	0.0151	0.00187	0.0
57	56	80	1	0.0343	0.0966	0.0121	0.0
57	50	81	1	0.0474	0.134	0.0166	0.0
58	56	82	1	0.0343	0.0966	0.0121	0.0
58	51	83	1	0.0255	0.0719	0.00894	0.0
59	54	84	1	0.0503	0.2293	0.0299	0.0
59	56	85	1	0.0825	0.251	0.02845	0.0
59	56	86	1	0.0803	0.239	0.0268	0.0
59	55	87	1	0.04739	0.2158	0.02823	0.0
60	59	88	1	0.0317	0.145	0.0188	0.0
61	59	89	1	0.0328	0.15	0.0194	0.0
61	60	90	1	0.00264	0.0135	0.00728	0.0
62	60	91	1	0.0123	0.0561	0.00734	0.0
62	61	92	1	0.00824	0.0376	0.0049	0.0
59	63	93	2	0.0	0.0386	0.0	0.96
64	63	94	1	0.00172	0.02	0.108	0.0
61	64	95	2	0.0	0.0268	0.0	0.985
65	38	96	1	0.00901	0.0986	0.523	0.0
65	64	97	1	0.00269	0.0302	0.19	0.0
66	49	98	1	0.018	0.0919	0.0124	0.0
66	49	99	1	0.018	0.0919	0.0124	0.0
66	62	100	1	0.0482	0.218	0.0289	0.0
67	62	101	1	0.0258	0.117	0.0155	0.0
66	65	102	2	0.0	0.037	0.0	0.935
67	66	103	1	0.0224	0.1015	0.01341	0.0
68	65	104	1	0.00138	0.016	0.319	0.0
69	47	105	1	0.0844	0.2778	0.03546	0.0
69	49	106	1	0.0985	0.324	0.0414	0.0
69	68	107	2	0.0	0.037	0.0	0.935
70	69	108	1	0.03	0.127	0.061	0.0
70	24	109	1	0.00221	0.4115	0.05099	0.0
71	70	110	1	0.00882	0.0355	0.00439	0.0
72	24	111	1	0.0488	0.196	0.0244	0.0
72	71	112	1	0.0446	0.18	0.02222	0.0
73	71	113	1	0.00866	0.0454	0.00589	0.0
74	70	114	1	0.0401	0.1323	0.01684	0.0
75	70	115	1	0.0428	0.141	0.018	0.0
75	69	116	1	0.0405	0.122	0.062	0.0
75	74	117	1	0.0123	0.0406	0.00517	0.0
77	76	118	1	0.0444	0.148	0.0184	0.0
77	69	119	1	0.0309	0.101	0.0519	0.0
77	75	120	1	0.0601	0.1999	0.02489	0.0
78	77	121	1	0.00376	0.0124	0.00632	0.0
79	78	122	1	0.00546	0.0244	0.00324	0.0
80	77	123	1	0.017	0.0485	0.0236	0.0
80	77	124	1	0.0294	0.105	0.0114	0.0
80	79	125	1	0.0156	0.0704	0.00935	0.0
81	68	126	1	0.00175	0.0202	0.404	0.0
80	81	127	2	0.0	0.037	0.0	0.935
82	77	128	1	0.0298	0.0853	0.04087	0.0
83	82	129	1	0.0112	0.03665	0.01898	0.0
84	83	130	1	0.0625	0.132	0.0129	0.0
85	83	131	1	0.043	0.148	0.0174	0.0
85	84	132	1	0.0302	0.0641	0.00617	0.0
86	85	133	1	0.035	0.123	0.0138	0.0
87	86	134	1	0.02828	0.2074	0.02225	0.0
88	85	135	1	0.02	0.102	0.0138	0.0
89	85	136	1	0.0239	0.173	0.0235	0.0
89	88	137	1	0.0139	0.0712	0.00967	0.0
90	89	138	1	0.0518	0.188	0.0264	0.0
90	89	139	1	0.0238	0.0997	0.053	0.0
91	90	140	1	0.0254	0.0836	0.0107	0.0
92	89	141	1	0.0099	0.0505	0.0274	0.0
92	89	142	1	0.0393	0.1581	0.0207	0.0
92	91	143	1	0.0387	0.1272	0.01634	0.0
93	92	144	1	0.0258	0.0848	0.0109	0.0
94	92	145	1	0.0481	0.158	0.0203	0.0
94	93	146	1	0.0223	0.0732	0.00938	0.0
95	94	147	1	0.0132	0.0434	0.00555	0.0
96	80	148	1	0.0356	0.182	0.0247	0.0
96	82	149	1	0.0162	0.053	0.0272	0.0
96	94	150	1	0.0269	0.0869	0.0115	0.0
97	80	151	1	0.0183	0.0934	0.0127	0.0
98	80	152	1	0.0238	0.108	0.0143	0.0
99	80	153	1	0.0454	0.206	0.0273	0.0
100	92	154	1	0.0648	0.295	0.0236	0.0
100	94	155	1	0.0178	0.058	0.0302	0.0
96	95	156	1	0.0171	0.0547	0.00737	0.0
97	96	157	1	0.0173	0.0885	0.012	0.0
100	98	158	1	0.0397	0.179	0.0238	0.0
100	99	159	1	0.018	0.0813	0.0108	0.0
101	100	160	1	0.0277	0.1262	0.0164	0.0
102	92	161	1	0.0123	0.0559	0.00732	0.0
102	101	162	1	0.0246	0.112	0.0147	0.0
103	100	163	1	0.016	0.0525	0.0268	0.0
104	100	164	1	0.0451	0.204	0.02705	0.0
104	103	165	1	0.0466	0.1584	0.02035	0.0
105	103	166	1	0.0535	0.1625	0.0204	0.0
106	100	167	1	0.0605	0.229	0.031	0.0
105	104	168	1	0.00994	0.0378	0.00493	0.0
106	105	169	1	0.014	0.0547	0.00717	0.0
107	105	170	1	0.053	0.183	0.0236	0.0
108	105	171	1	0.0261	0.0703	0.00922	0.0
107	106	172	1	0.053	0.183	0.0236	0.0
109	108	173	1	0.0105	0.0288	0.0038	0.0
110	103	174	1	0.03906	0.1813	0.02305	0.0
110	109	175	1	0.0278	0.0762	0.0101	0.0
111	110	176	1	0.022	0.0755	0.01	0.0
112	110	177	1	0.0247	0.064	0.031	0.0
113	17	178	1	0.00913	0.0301	0.00384	0.0
113	32	179	1	0.0615	0.203	0.0259	0.0
114	32	180	1	0.0135	0.0612	0.00814	0.0
115	27	181	1	0.0164	0.0741	0.00986	0.0
115	114	182	1	0.0023	0.0104	0.00138	0.0
116	68	183	1	3.4E-4	0.00405	0.082	0.0
117	12	184	1	0.0329	0.14	0.0179	0.0
118	75	185	1	0.0145	0.0481	0.00599	0.0
118	76	186	1	0.0164	0.0544	0.00678	0.0
BRANCH_INFO_END